Version 4.1
SHEET 1 1700 680
WIRE 224 -1712 224 -1808
WIRE 432 -1712 224 -1712
WIRE 848 -1664 592 -1664
WIRE 224 -1584 224 -1712
WIRE 432 -1568 432 -1712
WIRE -1952 -1520 -2192 -1520
WIRE -1840 -1520 -1888 -1520
WIRE -1776 -1520 -1840 -1520
WIRE -2192 -1392 -2192 -1520
WIRE -2192 -1392 -2400 -1392
WIRE -1968 -1392 -2192 -1392
WIRE -1840 -1392 -1840 -1520
WIRE -1840 -1392 -1888 -1392
WIRE 736 -1392 656 -1392
WIRE 432 -1376 432 -1488
WIRE 592 -1376 592 -1664
WIRE 592 -1376 432 -1376
WIRE 656 -1376 656 -1392
WIRE 656 -1376 592 -1376
WIRE 928 -1376 928 -1664
WIRE 928 -1376 800 -1376
WIRE 1328 -1376 928 -1376
WIRE 736 -1360 688 -1360
WIRE 224 -1312 224 -1504
WIRE 224 -1312 0 -1312
WIRE 688 -1312 688 -1360
WIRE 688 -1312 224 -1312
WIRE -2400 -1200 -2400 -1392
WIRE -1952 -1168 -2032 -1168
WIRE -2192 -1152 -2192 -1392
WIRE -2032 -1152 -2032 -1168
WIRE -2032 -1152 -2192 -1152
WIRE -1776 -1152 -1776 -1520
WIRE -1776 -1152 -1888 -1152
WIRE -1632 -1152 -1632 -1200
WIRE -1632 -1152 -1776 -1152
WIRE -1488 -1152 -1632 -1152
WIRE -2400 -1120 -2400 -1136
WIRE -2400 -1008 -2400 -1040
WIRE -1920 -1008 -1920 -1120
WIRE 1152 -368 1152 -416
WIRE -2144 -320 -2176 -320
WIRE -1936 -304 -2080 -304
WIRE -1744 -304 -1744 -384
WIRE -1744 -304 -1936 -304
WIRE -1600 -304 -1744 -304
WIRE -2240 -288 -2240 -304
WIRE -2240 -288 -2464 -288
WIRE -2144 -288 -2240 -288
WIRE 944 -240 912 -240
WIRE 1152 -224 1152 -288
WIRE 1152 -224 1008 -224
WIRE 1216 -224 1152 -224
WIRE -224 -208 -304 -208
WIRE 80 -208 64 -208
WIRE 160 -208 128 -208
WIRE 176 -208 160 -208
WIRE 336 -208 240 -208
WIRE 592 -208 336 -208
WIRE 944 -208 800 -208
WIRE 592 -192 592 -208
WIRE 784 -192 784 -208
WIRE 784 -192 672 -192
WIRE 800 -192 800 -208
WIRE 800 -192 784 -192
WIRE 1216 -192 1216 -224
WIRE 1280 -192 1216 -192
WIRE 1440 -192 1360 -192
WIRE 1568 -192 1440 -192
WIRE 160 -96 160 -208
WIRE 336 -96 336 -208
WIRE 336 -96 240 -96
WIRE 336 -64 336 -96
WIRE 1440 -32 1440 -192
WIRE 336 48 336 16
WIRE -2240 112 -2240 -288
WIRE -2144 112 -2240 112
WIRE -1936 112 -1936 -304
WIRE -1936 112 -2064 112
WIRE 1440 112 1440 32
WIRE 784 128 784 -192
WIRE 848 128 784 128
WIRE 848 144 848 128
WIRE 912 144 848 144
WIRE 1152 144 1152 -224
WIRE 1152 144 992 144
FLAG 336 48 0
FLAG 1440 112 0
FLAG 1152 -416 v2
FLAG 976 -192 0
FLAG 976 -256 v2
FLAG 912 -240 v1
FLAG 352 -544 0
FLAG 464 -544 0
FLAG 352 -624 v1
FLAG 464 -624 v2
FLAG -304 -208 vp
FLAG -144 -208 0
FLAG -2112 -272 0
FLAG -2112 -336 v2
FLAG -1744 -464 v2
FLAG -2176 -320 v1
FLAG -2400 -1008 0
FLAG -1920 -1008 0
FLAG -1920 -1184 v2
FLAG -1952 -1136 v1
FLAG 768 -1408 v2
FLAG 224 -1808 v1
FLAG 768 -1344 0
FLAG 1328 -1376 vin
FLAG -64 -1312 vpd
FLAG -1488 -1152 vpd
FLAG -2544 -288 vin
FLAG -1600 -304 vsquare
FLAG 64 -208 vsquare
SYMBOL diode 64 -192 R270
WINDOW 0 32 32 VTop 2
WINDOW 3 0 32 VBottom 2
SYMATTR InstName D1
SYMATTR Value 1N4148
SYMBOL cap 240 -224 R90
WINDOW 0 0 32 VBottom 2
WINDOW 3 32 32 VTop 2
SYMATTR InstName C1
SYMATTR Value 10f
SYMBOL res 256 -112 R90
WINDOW 0 0 56 VBottom 2
WINDOW 3 32 56 VTop 2
SYMATTR InstName R1
SYMATTR Value 1k
SYMBOL res 352 32 R180
WINDOW 0 36 76 Left 2
WINDOW 3 36 40 Left 2
SYMATTR InstName R2
SYMATTR Value 1k
SYMBOL voltage -240 -208 R270
WINDOW 0 32 56 VTop 2
WINDOW 3 -32 56 VBottom 2
WINDOW 123 0 0 Left 0
WINDOW 39 0 0 Left 0
SYMATTR InstName V1
SYMATTR Value PULSE(0 500 0 0.01u 0.01u 2m 10m 100000)
SYMBOL res 688 -208 R90
WINDOW 0 0 56 VBottom 2
WINDOW 3 32 56 VTop 2
SYMATTR InstName R3
SYMATTR Value 1k
SYMBOL OpAmps\\UniversalOpAmp2 976 -224 R0
SYMATTR InstName U1
SYMBOL res 1136 -384 R0
SYMATTR InstName R4
SYMATTR Value 1k
SYMBOL res 1376 -208 R90
WINDOW 0 0 56 VBottom 2
WINDOW 3 32 56 VTop 2
SYMATTR InstName R5
SYMATTR Value 1k
SYMBOL cap 1424 -32 R0
SYMATTR InstName C2
SYMATTR Value 1nf
SYMBOL res 1008 128 R90
WINDOW 0 0 56 VBottom 2
WINDOW 3 32 56 VTop 2
SYMATTR InstName R6
SYMATTR Value 1k
SYMBOL voltage 352 -640 R0
WINDOW 123 0 0 Left 0
WINDOW 39 0 0 Left 0
SYMATTR InstName V2
SYMATTR Value 5
SYMBOL voltage 464 -640 R0
WINDOW 123 0 0 Left 0
WINDOW 39 0 0 Left 0
SYMATTR InstName V3
SYMATTR Value 10
SYMBOL res -2448 -304 R90
WINDOW 0 0 56 VBottom 2
WINDOW 3 32 56 VTop 2
SYMATTR InstName R7
SYMATTR Value 1k
SYMBOL OpAmps\\UniversalOpAmp2 -2112 -304 R0
SYMATTR InstName U2
SYMBOL res -1760 -480 R0
SYMATTR InstName R8
SYMATTR Value 1k
SYMBOL res -2048 96 R90
WINDOW 0 0 56 VBottom 2
WINDOW 3 32 56 VTop 2
SYMATTR InstName R9
SYMATTR Value 1k
SYMBOL res 208 -1600 R0
SYMATTR InstName R10
SYMATTR Value 1k
SYMBOL res 416 -1584 R0
SYMATTR InstName R11
SYMATTR Value 1k
SYMBOL res 944 -1680 R90
WINDOW 0 0 56 VBottom 2
WINDOW 3 32 56 VTop 2
SYMATTR InstName R12
SYMATTR Value 1k
SYMBOL OpAmps\\UniversalOpAmp2 768 -1376 R0
SYMATTR InstName U3
SYMBOL cap 0 -1328 R90
WINDOW 0 0 32 VBottom 2
WINDOW 3 32 32 VTop 2
SYMATTR InstName C3
SYMATTR Value 1f
SYMBOL diode -2384 -1136 R180
WINDOW 0 24 64 Left 2
WINDOW 3 24 0 Left 2
SYMATTR InstName D2
SYMBOL OpAmps\\UniversalOpAmp2 -1920 -1152 R0
SYMATTR InstName U4
SYMBOL res -1872 -1408 R90
WINDOW 0 0 56 VBottom 2
WINDOW 3 32 56 VTop 2
SYMATTR InstName R13
SYMATTR Value 100k
SYMBOL cap -1888 -1536 R90
WINDOW 0 0 32 VBottom 2
WINDOW 3 32 32 VTop 2
SYMATTR InstName C4
SYMATTR Value 10p
SYMBOL current -2400 -1040 R180
WINDOW 0 24 80 Left 2
WINDOW 3 24 0 Left 2
WINDOW 123 0 0 Left 0
WINDOW 39 0 0 Left 0
SYMATTR InstName I1
SYMATTR Value PULSE(0 10u 0 1m 1m 5m 10m)
TEXT 872 -688 Left 2 !.tran 10
RECTANGLE Normal 1696 320 -624 -784 2
