Version 4
SHEET 1 2024 1284
WIRE -592 48 -592 -64
WIRE -48 48 -48 16
WIRE 304 48 -48 48
WIRE 1296 80 1296 32
WIRE 1296 80 1216 80
WIRE 1376 80 1296 80
WIRE -48 96 -48 48
WIRE 1376 96 1376 80
WIRE -1264 112 -1344 112
WIRE -992 112 -1040 112
WIRE 304 128 304 48
WIRE 304 128 288 128
WIRE 496 128 304 128
WIRE -1264 176 -1328 176
WIRE -976 176 -1040 176
WIRE 1376 192 1376 160
WIRE -592 208 -592 128
WIRE -592 208 -704 208
WIRE -400 208 -592 208
WIRE 288 208 288 128
WIRE 496 224 496 128
WIRE 1216 224 1216 160
WIRE -1264 240 -1456 240
WIRE -976 240 -1040 240
WIRE -48 256 -48 176
WIRE 144 256 -48 256
WIRE 224 256 144 256
WIRE -592 272 -592 208
WIRE -1264 304 -1328 304
WIRE -1008 304 -1040 304
WIRE -896 304 -944 304
WIRE 1216 336 1216 288
WIRE -400 352 -400 208
WIRE 144 368 144 256
WIRE 496 384 496 288
WIRE 496 384 448 384
WIRE 1024 416 992 416
WIRE 1168 416 1104 416
WIRE -592 432 -592 352
WIRE 288 432 288 304
WIRE 384 432 288 432
WIRE 512 480 448 480
WIRE 1216 480 1216 432
WIRE 512 544 512 480
WIRE -592 560 -592 496
WIRE -592 560 -720 560
WIRE -400 560 -400 416
WIRE -400 560 -592 560
WIRE -592 624 -592 560
WIRE 144 656 144 448
WIRE 304 656 144 656
WIRE 512 656 512 624
WIRE 512 656 304 656
WIRE 304 720 304 656
WIRE -592 768 -592 688
FLAG 304 720 0
FLAG -624 -240 V+
FLAG -736 -240 Offset
FLAG -624 -160 0
FLAG -736 -160 0
FLAG -512 -160 0
FLAG -512 -240 VCC
FLAG -48 16 VCC
FLAG 1296 32 V+
FLAG 1216 480 0
FLAG 1376 192 0
FLAG 992 416 Vsq
FLAG -592 -64 5V
FLAG -592 768 0
FLAG -704 208 Dis
FLAG -720 560 Vrc
FLAG -992 112 5V
FLAG -1328 176 Vrc
FLAG -976 240 Vrc
FLAG -1328 304 5V
FLAG -976 176 Dis
FLAG -1456 240 Vsq
FLAG -896 304 0
FLAG -1344 112 0
SYMBOL LED 480 224 R0
SYMATTR InstName D1
SYMATTR Value 1N914
SYMBOL npn 224 208 R0
SYMATTR InstName Q1
SYMATTR Value 2N3904
SYMBOL npn 384 384 R0
SYMATTR InstName Q2
SYMATTR Value 2N2222
SYMBOL res 496 528 R0
SYMATTR InstName R1
SYMATTR Value 47
SYMBOL res 128 352 R0
SYMATTR InstName R2
SYMATTR Value 4.7k
SYMBOL res -64 80 R0
SYMATTR InstName R3
SYMATTR Value 10k
SYMBOL voltage -512 -256 R0
WINDOW 123 0 0 Left 0
WINDOW 39 0 0 Left 0
SYMATTR InstName VCC
SYMATTR Value 12
SYMBOL voltage -624 -256 R0
WINDOW 123 0 0 Left 0
WINDOW 39 0 0 Left 0
SYMATTR InstName V2
SYMATTR Value 5
SYMBOL voltage -736 -256 R0
WINDOW 123 0 0 Left 0
WINDOW 39 0 0 Left 0
SYMATTR InstName V3
SYMATTR Value 2
SYMBOL nmos 1168 336 R0
SYMATTR InstName M1
SYMATTR Value IRFZ44N
SYMBOL LED 1200 224 R0
SYMATTR InstName D2
SYMATTR Value 1N914
SYMBOL res 1200 64 R0
SYMATTR InstName R13
SYMATTR Value 47
SYMBOL cap 1360 96 R0
SYMATTR InstName C4
SYMATTR Value 100n
SYMBOL res 1120 400 R90
WINDOW 0 0 56 VBottom 2
WINDOW 3 32 56 VTop 2
SYMATTR InstName R14
SYMATTR Value 100
SYMBOL Res -608 32 R0
SYMATTR InstName R4
SYMATTR Value 33k
SYMBOL Res -608 256 R0
SYMATTR InstName R5
SYMATTR Value 33k
SYMBOL schottky -576 496 R180
WINDOW 0 24 64 Left 2
WINDOW 3 24 0 Left 2
SYMATTR InstName D5
SYMATTR Value BAT54
SYMATTR Description Zener Diode
SYMATTR Type zener
SYMBOL Cap -608 624 R0
SYMATTR InstName C2
SYMATTR Value 400p
SYMBOL schottky -416 352 R0
SYMATTR InstName D6
SYMATTR Value BAT54
SYMATTR Description Zener Diode
SYMATTR Type zener
SYMBOL Misc/NE555 -1152 208 R0
SYMATTR InstName U1
SYMBOL Cap -944 288 R90
WINDOW 0 0 32 VBottom 2
WINDOW 3 32 32 VTop 2
SYMATTR InstName C1
SYMATTR Value 100nF
TEXT -1136 -224 Left 2 !.tran 100ms
TEXT -1136 -256 Left 2 !.include TLC081.mod
TEXT -1136 -280 Left 2 !.include LM324.lib
TEXT -1136 -304 Left 2 !.include LM358.mod
TEXT -1136 -328 Left 2 !.include LM393A.txt
TEXT -1128 -352 Left 2 ;.include LM358.txt
TEXT -2384 -56 Left 2 ;i think that the square wave generator is mostly fine maybe just tweaks if we want different frequencys
TEXT -2376 -32 Left 2 ;change in voltage is changed to be 1.5V to try fit in the characteristics of the TLC082 better(0.18 - 4.3)V
TEXT -104 -104 Left 2 ;Darlton pair
TEXT -1120 -384 Left 2 !.include irlz44n.txt
