Version 4.1
SHEET 1 880 1268
WIRE -320 -80 -320 -112
WIRE 32 -80 -320 -80
WIRE -320 -32 -320 -80
WIRE -960 0 -992 0
WIRE -848 0 -896 0
WIRE 32 0 32 -80
WIRE 32 0 16 0
WIRE 224 0 32 0
WIRE -688 16 -704 16
WIRE -560 16 -608 16
WIRE 16 80 16 0
WIRE 224 96 224 0
WIRE -992 112 -992 0
WIRE -992 112 -1056 112
WIRE -960 112 -992 112
WIRE -848 128 -848 0
WIRE -848 128 -896 128
WIRE -816 128 -848 128
WIRE -704 128 -704 16
WIRE -704 128 -736 128
WIRE -560 128 -560 16
WIRE -560 128 -608 128
WIRE -528 128 -560 128
WIRE -320 128 -320 48
WIRE -320 128 -528 128
WIRE -128 128 -320 128
WIRE -48 128 -128 128
WIRE -704 144 -704 128
WIRE -672 144 -704 144
WIRE -1136 208 -1136 112
WIRE -528 208 -528 128
WIRE -528 208 -1136 208
WIRE -128 240 -128 128
WIRE 224 256 224 160
WIRE 224 256 176 256
WIRE -960 272 -992 272
WIRE -848 272 -896 272
WIRE -688 288 -704 288
WIRE -560 288 -608 288
WIRE 16 304 16 176
WIRE 112 304 16 304
WIRE 240 352 176 352
WIRE -992 384 -992 272
WIRE -992 384 -1056 384
WIRE -960 384 -992 384
WIRE -848 400 -848 272
WIRE -848 400 -896 400
WIRE -816 400 -848 400
WIRE -704 400 -704 288
WIRE -704 400 -736 400
WIRE -560 400 -560 288
WIRE -560 400 -608 400
WIRE -528 400 -560 400
WIRE -704 416 -704 400
WIRE -672 416 -704 416
WIRE 240 416 240 352
WIRE -1136 480 -1136 384
WIRE -528 480 -528 400
WIRE -528 480 -1136 480
WIRE -128 528 -128 320
WIRE 32 528 -128 528
WIRE 240 528 240 496
WIRE 240 528 32 528
WIRE -976 544 -1008 544
WIRE -864 544 -912 544
WIRE -704 560 -720 560
WIRE -576 560 -624 560
WIRE 32 592 32 528
WIRE -1008 656 -1008 544
WIRE -1008 656 -1072 656
WIRE -976 656 -1008 656
WIRE -864 672 -864 544
WIRE -864 672 -912 672
WIRE -832 672 -864 672
WIRE -720 672 -720 560
WIRE -720 672 -752 672
WIRE -576 672 -576 560
WIRE -576 672 -624 672
WIRE -544 672 -576 672
WIRE -720 688 -720 672
WIRE -688 688 -720 688
WIRE -1152 752 -1152 656
WIRE -544 752 -544 672
WIRE -544 752 -1152 752
FLAG 32 592 0
FLAG -624 -240 V+
FLAG -736 -240 Offset
FLAG -624 -160 0
FLAG -736 -160 0
FLAG -928 160 0
FLAG -640 160 0
FLAG -928 96 V+
FLAG -640 96 V+
FLAG -960 144 Offset
FLAG -672 112 Offset
FLAG -512 -160 0
FLAG -512 -240 VCC
FLAG -320 -112 VCC
FLAG -928 432 0
FLAG -640 432 0
FLAG -928 368 V+
FLAG -640 368 V+
FLAG -960 416 Offset
FLAG -672 384 Offset
FLAG -944 704 0
FLAG -656 704 0
FLAG -944 640 V+
FLAG -656 640 V+
FLAG -976 688 Offset
FLAG -688 656 Offset
SYMBOL LED 208 96 R0
SYMATTR InstName D1
SYMATTR Value 1N914
SYMBOL npn -48 80 R0
SYMATTR InstName Q1
SYMATTR Value 2N3904
SYMBOL npn 112 256 R0
SYMATTR InstName Q2
SYMATTR Value 2N2222
SYMBOL res 224 400 R0
SYMATTR InstName R1
SYMATTR Value 47
SYMBOL res -144 224 R0
SYMATTR InstName R2
SYMATTR Value 4.7k
SYMBOL res -336 -48 R0
SYMATTR InstName R3
SYMATTR Value 10k
SYMBOL voltage -512 -256 R0
WINDOW 123 0 0 Left 0
WINDOW 39 0 0 Left 0
SYMATTR InstName VCC
SYMATTR Value 12
SYMBOL OpAmps\\opamp2 -928 64 R0
SYMATTR InstName U1
SYMATTR Value TLC081
SYMBOL OpAmps\\opamp2 -640 64 R0
SYMATTR InstName U2
SYMATTR Value TLC081
SYMBOL voltage -624 -256 R0
WINDOW 123 0 0 Left 0
WINDOW 39 0 0 Left 0
SYMATTR InstName V2
SYMATTR Value 5
SYMBOL voltage -736 -256 R0
WINDOW 123 0 0 Left 0
WINDOW 39 0 0 Left 0
SYMATTR InstName V3
SYMATTR Value 2
SYMBOL cap -896 -16 R90
WINDOW 0 0 32 VBottom 2
WINDOW 3 32 32 VTop 2
SYMATTR InstName C1
SYMATTR Value 1500p
SYMBOL res -720 112 R90
WINDOW 0 0 56 VBottom 2
WINDOW 3 32 56 VTop 2
SYMATTR InstName R4
SYMATTR Value 10k
SYMBOL res -592 0 R90
WINDOW 0 0 56 VBottom 2
WINDOW 3 32 56 VTop 2
SYMATTR InstName R5
SYMATTR Value 33k
SYMBOL res -1040 96 R90
WINDOW 0 0 56 VBottom 2
WINDOW 3 32 56 VTop 2
SYMATTR InstName R6
SYMATTR Value 555555
SYMBOL OpAmps\\opamp2 -928 336 R0
SYMATTR InstName U3
SYMATTR Value TLC081
SYMBOL OpAmps\\opamp2 -640 336 R0
SYMATTR InstName U4
SYMATTR Value TLC081
SYMBOL cap -896 256 R90
WINDOW 0 0 32 VBottom 2
WINDOW 3 32 32 VTop 2
SYMATTR InstName C2
SYMATTR Value 1500p
SYMBOL res -720 384 R90
WINDOW 0 0 56 VBottom 2
WINDOW 3 32 56 VTop 2
SYMATTR InstName R7
SYMATTR Value 10k
SYMBOL res -592 272 R90
WINDOW 0 0 56 VBottom 2
WINDOW 3 32 56 VTop 2
SYMATTR InstName R8
SYMATTR Value 33k
SYMBOL res -1040 368 R90
WINDOW 0 0 56 VBottom 2
WINDOW 3 32 56 VTop 2
SYMATTR InstName R9
SYMATTR Value 555555
SYMBOL cap -912 528 R90
WINDOW 0 0 32 VBottom 2
WINDOW 3 32 32 VTop 2
SYMATTR InstName C3
SYMATTR Value 1500p
SYMBOL res -736 656 R90
WINDOW 0 0 56 VBottom 2
WINDOW 3 32 56 VTop 2
SYMATTR InstName R10
SYMATTR Value 10k
SYMBOL res -608 544 R90
WINDOW 0 0 56 VBottom 2
WINDOW 3 32 56 VTop 2
SYMATTR InstName R11
SYMATTR Value 33k
SYMBOL res -1056 640 R90
WINDOW 0 0 56 VBottom 2
WINDOW 3 32 56 VTop 2
SYMATTR InstName R12
SYMATTR Value 555555
SYMBOL OpAmps\\UniversalOpAmp2 -656 672 R0
SYMATTR InstName U5
SYMBOL OpAmps\\UniversalOpAmp2 -944 672 R0
SYMATTR InstName U6
TEXT -1136 -224 Left 2 !.tran 100ms
TEXT -1136 -256 Left 2 !.include TLC081.mod
TEXT -1136 -280 Left 2 !.include LM324.lib
TEXT -1136 -304 Left 2 !.include LM358.mod
TEXT -1136 -328 Left 2 !.include LM393A.txt
TEXT -1128 -352 Left 2 ;.include LM358.txt
TEXT -2384 -56 Left 2 ;i think that the square wave generator is mostly fine maybe just tweaks if we want different frequencys
TEXT -2376 -32 Left 2 ;change in voltage is changed to be 1.5V to try fit in the characteristics of the TLC082 better(0.18 - 4.3)V
