Version 4.1
SHEET 1 880 680
WIRE -304 -240 -864 -240
WIRE -320 -80 -320 -96
WIRE -304 -80 -304 -240
WIRE -304 -80 -320 -80
WIRE 32 -80 -304 -80
WIRE -864 -48 -864 -240
WIRE -320 -32 -320 -80
WIRE 32 0 32 -80
WIRE 32 0 16 0
WIRE 224 0 32 0
WIRE 16 80 16 0
WIRE 224 96 224 0
WIRE -864 112 -864 32
WIRE -320 128 -320 48
WIRE -320 128 -528 128
WIRE -128 128 -320 128
WIRE -48 128 -128 128
WIRE -528 176 -528 128
WIRE -128 240 -128 128
WIRE 176 256 160 256
WIRE 224 256 224 160
WIRE 224 256 176 256
WIRE -528 288 -528 256
WIRE 16 304 16 176
WIRE 112 304 16 304
WIRE 240 352 176 352
WIRE 240 416 240 352
WIRE -128 528 -128 320
WIRE 32 528 -128 528
WIRE 240 528 240 496
WIRE 240 528 32 528
WIRE 32 592 32 528
FLAG 32 592 0
FLAG -864 112 0
FLAG -528 288 0
SYMBOL LED 208 96 R0
SYMATTR InstName D1
SYMBOL npn -48 80 R0
SYMATTR InstName Q1
SYMATTR Value 2N3904
SYMBOL npn 112 256 R0
SYMATTR InstName Q2
SYMATTR Value 2N2222
SYMBOL res 224 400 R0
SYMATTR InstName R1
SYMATTR Value 47
SYMBOL res -144 224 R0
SYMATTR InstName R2
SYMATTR Value 4.7k
SYMBOL res -336 -48 R0
SYMATTR InstName R3
SYMATTR Value 10k
SYMBOL voltage -864 -64 R0
WINDOW 123 0 0 Left 0
WINDOW 39 0 0 Left 0
SYMATTR InstName VCC
SYMATTR Value 12
SYMBOL voltage -528 160 R0
WINDOW 123 0 0 Left 0
WINDOW 39 0 0 Left 0
SYMATTR InstName V1
SYMATTR Value PULSE(0 5 0 1u 1u 5m 10m)
TEXT -896 616 Left 2 !.tran 100ms
