Version 4.1
SHEET 1 5828 2800
WIRE 3184 208 3152 208
WIRE 3296 208 3248 208
WIRE 4240 272 4176 272
WIRE 4368 272 4304 272
WIRE 4464 272 4368 272
WIRE 3152 288 3152 208
WIRE 3184 288 3152 288
WIRE 3296 288 3296 208
WIRE 3296 288 3264 288
WIRE 4368 304 4368 272
WIRE 4464 320 4464 272
WIRE 2976 368 2896 368
WIRE 3040 368 2976 368
WIRE 3152 368 3152 288
WIRE 3152 368 3040 368
WIRE 3184 368 3152 368
WIRE 3296 384 3296 288
WIRE 3296 384 3248 384
WIRE 3392 384 3296 384
WIRE 2896 400 2896 368
WIRE 2976 400 2976 368
WIRE 3040 400 3040 368
WIRE 4368 416 4368 384
WIRE 4464 416 4464 384
WIRE 4464 416 4368 416
WIRE 4544 416 4464 416
WIRE 4464 448 4464 416
WIRE 2896 512 2896 480
WIRE 2976 512 2976 464
WIRE 2976 512 2896 512
WIRE 3040 512 3040 480
WIRE 3040 512 2976 512
WIRE 2976 544 2976 512
WIRE 4464 560 4464 528
WIRE 3088 960 3088 928
WIRE 3088 960 2992 960
WIRE 2992 976 2992 960
WIRE 3088 976 3088 960
WIRE 3200 1024 3136 1024
WIRE 3312 1024 3280 1024
WIRE 4272 1056 4192 1056
WIRE 4384 1072 4336 1072
WIRE 4496 1072 4384 1072
WIRE 4656 1072 4576 1072
WIRE 4736 1072 4656 1072
WIRE 4064 1088 3952 1088
WIRE 4224 1088 4144 1088
WIRE 4272 1088 4224 1088
WIRE 4656 1104 4656 1072
WIRE 3088 1136 3088 1056
WIRE 3136 1136 3136 1024
WIRE 3136 1136 3088 1136
WIRE 3168 1136 3136 1136
WIRE 3312 1152 3312 1024
WIRE 3312 1152 3232 1152
WIRE 3408 1152 3312 1152
WIRE 2880 1168 2800 1168
WIRE 2992 1168 2992 1056
WIRE 2992 1168 2944 1168
WIRE 3168 1168 2992 1168
WIRE 4224 1216 4224 1088
WIRE 4256 1216 4224 1216
WIRE 4384 1216 4384 1072
WIRE 4384 1216 4336 1216
WIRE 4224 1712 4176 1712
WIRE 4336 1712 4304 1712
WIRE 4176 1744 4176 1712
WIRE 4176 1744 4128 1744
WIRE 3104 1760 3024 1760
WIRE 3216 1776 3168 1776
WIRE 3392 1776 3216 1776
WIRE 2896 1792 2784 1792
WIRE 3056 1792 2976 1792
WIRE 3104 1792 3056 1792
WIRE 4176 1792 4176 1744
WIRE 4208 1792 4176 1792
WIRE 4336 1808 4336 1712
WIRE 4336 1808 4272 1808
WIRE 4384 1808 4336 1808
WIRE 4528 1808 4464 1808
WIRE 4592 1808 4528 1808
WIRE 4048 1824 4032 1824
WIRE 4176 1824 4128 1824
WIRE 4208 1824 4176 1824
WIRE 4176 1856 4176 1824
WIRE 4528 1856 4528 1808
WIRE 3056 1920 3056 1792
WIRE 3088 1920 3056 1920
WIRE 3216 1920 3216 1776
WIRE 3216 1920 3168 1920
FLAG 3216 416 0
FLAG 3200 1184 0
FLAG 3408 1152 V_IN_RX
FLAG 3200 1120 5V
FLAG 3136 1808 0
FLAG 3392 1776 V_SQ
FLAG 3952 1088 V_P
FLAG 4304 1104 0
FLAG 4304 1040 5V
FLAG 4176 272 V_SQ
FLAG 4464 560 0
FLAG 4544 416 V_P
FLAG 2976 544 0
FLAG 2432 320 V_bias
FLAG 3392 384 Vdet1
FLAG 2432 400 0
FLAG 2304 336 0
FLAG 2304 256 5V
FLAG 3184 400 V_bias
FLAG 3088 928 V_bias
FLAG 2800 1168 Vdet1
FLAG 3024 1760 V_bias
FLAG 3136 1744 5V
FLAG 2784 1792 V_IN_RX
FLAG 2880 832 Vdetlow
FLAG 4192 1056 V_bias
FLAG 4656 1168 0
FLAG 3216 352 5V
FLAG 4528 1920 0
FLAG 4176 1920 0
FLAG 4048 1744 0
FLAG 4240 1776 5V
FLAG 4240 1840 0
FLAG 4736 1072 Vfilter
FLAG 4032 1824 Vfilter
SYMBOL opamp2 3216 320 R0
SYMATTR InstName U9
SYMATTR Value TLC081
SYMBOL Cap 2960 400 R0
SYMATTR InstName C12
SYMATTR Value 4p
SYMBOL Res 3024 384 R0
SYMATTR InstName R11
SYMATTR Value 555555
SYMBOL current 2896 400 R0
WINDOW 123 0 0 Left 0
WINDOW 39 0 0 Left 0
SYMATTR InstName I1
SYMATTR Value PULSE(0 9u 0.00000000001 0.00000000001 0.00000000001 111u 333u 0)
SYMBOL Res 3280 272 R90
WINDOW 0 0 56 VBottom 2
WINDOW 3 32 56 VTop 2
SYMATTR InstName R25
SYMATTR Value 10k
SYMBOL Cap 3248 192 R90
WINDOW 0 0 32 VBottom 2
WINDOW 3 32 32 VTop 2
SYMATTR InstName C17
SYMATTR Value 16p
SYMBOL Res 3008 1072 R180
WINDOW 0 36 76 Left 2
WINDOW 3 36 40 Left 2
SYMATTR InstName R28
SYMATTR Value 80k
SYMBOL Res 3104 1072 R180
WINDOW 0 36 76 Left 2
WINDOW 3 36 40 Left 2
SYMATTR InstName R32
SYMATTR Value 10k
SYMBOL opamp2 3200 1088 R0
SYMATTR InstName U10
SYMATTR Value TLC081
SYMBOL Cap 2944 1152 R90
WINDOW 0 0 32 VBottom 2
WINDOW 3 32 32 VTop 2
SYMATTR InstName C11
SYMATTR Value 10n
SYMBOL Res 3296 1008 R90
WINDOW 0 0 56 VBottom 2
WINDOW 3 32 56 VTop 2
SYMATTR InstName R33
SYMATTR Value 150k
SYMBOL opamp2 3136 1712 R0
SYMATTR InstName U13
SYMATTR Value TLC081
SYMBOL Res 2992 1776 R90
WINDOW 0 0 56 VBottom 2
WINDOW 3 32 56 VTop 2
SYMATTR InstName R34
SYMATTR Value 100
SYMBOL Res 3184 1904 R90
WINDOW 0 0 56 VBottom 2
WINDOW 3 32 56 VTop 2
SYMATTR InstName R35
SYMATTR Value 100k
SYMBOL opamp2 4304 1008 R0
SYMATTR InstName U14
SYMATTR Value TLC081
SYMBOL Res 4160 1072 R90
WINDOW 0 0 56 VBottom 2
WINDOW 3 32 56 VTop 2
SYMATTR InstName R37
SYMATTR Value 200
SYMBOL Res 4352 1200 R90
WINDOW 0 0 56 VBottom 2
WINDOW 3 32 56 VTop 2
SYMATTR InstName R38
SYMATTR Value 100k
SYMBOL diode 4240 288 R270
WINDOW 0 32 32 VTop 2
WINDOW 3 0 32 VBottom 2
SYMATTR InstName D3
SYMATTR Value 1N4148
SYMBOL Cap 4448 320 R0
SYMATTR InstName C19
SYMATTR Value 1n
SYMBOL Res 4352 288 R0
SYMATTR InstName R40
SYMATTR Value 1532
SYMBOL Res 4448 432 R0
SYMATTR InstName R41
SYMATTR Value 2700
SYMBOL voltage 2432 304 R0
WINDOW 123 0 0 Left 0
WINDOW 39 0 0 Left 0
SYMATTR InstName V1
SYMATTR Value 2.5
SYMBOL voltage 2304 240 R0
WINDOW 123 0 0 Left 0
WINDOW 39 0 0 Left 0
SYMATTR InstName V2
SYMATTR Value 5
SYMBOL res 4592 1056 R90
WINDOW 0 0 56 VBottom 2
WINDOW 3 32 56 VTop 2
SYMATTR InstName R1
SYMATTR Value 10k
SYMBOL cap 4640 1104 R0
SYMATTR InstName C1
SYMATTR Value 220n
SYMBOL opamp2 4240 1744 R0
SYMATTR InstName U1
SYMATTR Value TLC081
SYMBOL res 4144 1728 R90
WINDOW 0 0 56 VBottom 2
WINDOW 3 32 56 VTop 2
SYMATTR InstName R2
SYMATTR Value 10k
SYMBOL res 4320 1696 R90
WINDOW 0 0 56 VBottom 2
WINDOW 3 32 56 VTop 2
SYMATTR InstName R3
SYMATTR Value 40k
SYMBOL res 4144 1808 R90
WINDOW 0 0 56 VBottom 2
WINDOW 3 32 56 VTop 2
SYMATTR InstName R4
SYMATTR Value 10k
SYMBOL cap 4160 1856 R0
SYMATTR InstName C2
SYMATTR Value 80n
SYMBOL res 4480 1792 R90
WINDOW 0 0 56 VBottom 2
WINDOW 3 32 56 VTop 2
SYMATTR InstName R5
SYMATTR Value 10k
SYMBOL cap 4512 1856 R0
SYMATTR InstName C3
SYMATTR Value 80n
TEXT 536 -640 Left 2 !.lib LM324.lib
TEXT 544 -576 Left 2 !.tran 0 18ms 0 10u
TEXT -320 -440 Left 2 ;Load simulation. MAKE SURE NOT TO PUT Lload and Rload on PCB
TEXT 848 -392 Left 2 ;PWM generator with changing capacitance
TEXT 560 -608 Left 2 !.lib LTC.lib
TEXT 584 -504 Left 2 !.include TLC081.mod
TEXT 3032 -24 Left 4 ;Input conditioning
TEXT 3592 88 Left 2 ;Light Detector
TEXT 3296 768 Left 2 ;Input signal conditioning w/ high pass filter
TEXT 3552 -144 Left 5 ;Receiver (Rx) Designs
TEXT 4760 80 Left 2 ;Positive edge detector
TEXT 3456 1456 Left 2 ;comparator for square wave
TEXT 4256 -16 Left 4 ;Pulse generator
TEXT 4664 776 Left 2 ;Comparator w/ low pass for avg
TEXT 2664 136 Left 2 ;SFH 203 P characteristics:\n400-1100 nm\nC_0 = 4pF @ 2V, 3.5pF @ 5V\nIp = 9uA @ 1k lx\nIp = 100nA @ low light\nI_R = 1-5 nA @ V_R = 20V\nR_leak = 20/5n = 4x10^9 Ohms
TEXT 3232 656 Left 2 ;Cutoff frequency f_0 =1/(2 pi R_F C_F)
TEXT 4704 1456 Left 2 ;buffer
TEXT 3200 616 Left 2 ;assuming frequency range of 3k to 30k
TEXT 3104 568 Left 2 ;fc is currently 1MHz to keep around 10x our signal freq
TEXT 2232 72 Left 2 ;Light Detector
TEXT 3464 888 Left 2 ;aiming for a gain of 10
TEXT 3480 936 Left 2 ;fc 200Hz to get rid of dc
TEXT 3832 2152 Left 2 ;Goes from 1v to 3v ish from 30khz to 3khz. pretty much works just needs inversion so that 3khz gives 3v, just dont know where given all the non inverting amps on the pcb
RECTANGLE Normal 2540 56 3772 732 2
RECTANGLE Normal 2540 744 3772 1420 2
RECTANGLE Normal 3784 56 5016 732 2
RECTANGLE Normal 3784 744 5016 1420 2
RECTANGLE Normal 2540 1432 3772 2108 2
RECTANGLE Normal 3788 1432 5020 2108 2
