Version 4.1
SHEET 1 5828 2800
WIRE 1904 176 1856 176
WIRE 2016 176 1984 176
WIRE 4240 272 4176 272
WIRE 4368 272 4304 272
WIRE 4464 272 4368 272
WIRE 4368 304 4368 272
WIRE 4464 320 4464 272
WIRE 1856 368 1856 176
WIRE 1904 368 1856 368
WIRE 2016 384 2016 176
WIRE 2016 384 1968 384
WIRE 2144 384 2096 384
WIRE 2208 384 2144 384
WIRE 1712 400 1664 400
WIRE 1872 400 1792 400
WIRE 1904 400 1872 400
WIRE 4368 416 4368 384
WIRE 4464 416 4464 384
WIRE 4464 416 4368 416
WIRE 4544 416 4464 416
WIRE 1664 432 1664 400
WIRE 1792 448 1792 400
WIRE 1872 448 1872 400
WIRE 4464 448 4464 416
WIRE 1792 528 1792 512
WIRE 1872 528 1792 528
WIRE 1664 544 1664 512
WIRE 4464 560 4464 528
WIRE 3200 928 3136 928
WIRE 3312 928 3264 928
WIRE 3088 960 3088 928
WIRE 3088 960 2992 960
WIRE 2992 976 2992 960
WIRE 3088 976 3088 960
WIRE 3136 1024 3136 928
WIRE 3200 1024 3136 1024
WIRE 3312 1024 3312 928
WIRE 3312 1024 3280 1024
WIRE 2080 1040 1696 1040
WIRE 4272 1056 4192 1056
WIRE 1696 1072 1696 1040
WIRE 1824 1072 1696 1072
WIRE 1936 1072 1824 1072
WIRE 2080 1072 2080 1040
WIRE 4384 1072 4336 1072
WIRE 4448 1072 4384 1072
WIRE 1824 1088 1824 1072
WIRE 4064 1088 3952 1088
WIRE 4224 1088 4144 1088
WIRE 4272 1088 4224 1088
WIRE 3088 1136 3088 1056
WIRE 3136 1136 3136 1024
WIRE 3136 1136 3088 1136
WIRE 3168 1136 3136 1136
WIRE 1824 1152 1696 1152
WIRE 1936 1152 1824 1152
WIRE 3312 1152 3312 1024
WIRE 3312 1152 3232 1152
WIRE 3408 1152 3312 1152
WIRE 2880 1168 2800 1168
WIRE 2992 1168 2992 1056
WIRE 2992 1168 2944 1168
WIRE 3168 1168 2992 1168
WIRE 1696 1184 1696 1152
WIRE 4224 1216 4224 1088
WIRE 4256 1216 4224 1216
WIRE 4384 1216 4384 1072
WIRE 4384 1216 4336 1216
WIRE 1696 1248 1696 1184
WIRE 1888 1312 1696 1312
WIRE 2080 1312 2080 1152
WIRE 2080 1312 1888 1312
WIRE 4240 1552 4192 1552
WIRE 4448 1552 4320 1552
WIRE 1904 1584 1856 1584
WIRE 2000 1584 1968 1584
WIRE 4352 1632 4320 1632
WIRE 4448 1632 4448 1552
WIRE 4448 1632 4416 1632
WIRE 1856 1680 1856 1584
WIRE 1888 1680 1856 1680
WIRE 2000 1680 2000 1584
WIRE 2000 1680 1968 1680
WIRE 4064 1680 4016 1680
WIRE 4192 1680 4192 1552
WIRE 4192 1680 4144 1680
WIRE 4240 1680 4192 1680
WIRE 4320 1680 4320 1632
WIRE 1856 1712 1856 1680
WIRE 4320 1728 4320 1680
WIRE 4352 1728 4320 1728
WIRE 4448 1744 4448 1632
WIRE 4448 1744 4416 1744
WIRE 4480 1744 4448 1744
WIRE 4592 1744 4560 1744
WIRE 4656 1744 4592 1744
WIRE 1856 1760 1856 1712
WIRE 1888 1760 1856 1760
WIRE 3104 1760 3024 1760
WIRE 4352 1760 4336 1760
WIRE 2000 1776 2000 1680
WIRE 2000 1776 1952 1776
WIRE 2096 1776 2000 1776
WIRE 3216 1776 3168 1776
WIRE 3392 1776 3216 1776
WIRE 1888 1792 1856 1792
WIRE 2896 1792 2784 1792
WIRE 3056 1792 2976 1792
WIRE 3104 1792 3056 1792
WIRE 4224 1808 4192 1808
WIRE 4336 1808 4336 1760
WIRE 4336 1808 4304 1808
WIRE 4336 1824 4336 1808
WIRE 4192 1840 4192 1808
WIRE 4272 1904 4192 1904
WIRE 4336 1904 4272 1904
WIRE 3056 1920 3056 1792
WIRE 3088 1920 3056 1920
WIRE 3216 1920 3216 1776
WIRE 3216 1920 3168 1920
FLAG 3200 1184 0
FLAG 3408 1152 V_IN_RX
FLAG 3200 1120 5V
FLAG 3136 1808 0
FLAG 3392 1776 V_SQ
FLAG 3952 1088 V_P
FLAG 4304 1104 0
FLAG 4304 1040 5V
FLAG 4176 272 V_SQ
FLAG 4464 560 0
FLAG 4544 416 V_P
FLAG 1664 544 0
FLAG 3088 928 V_bias
FLAG 2800 1168 Vdet1
FLAG 3024 1760 V_bias
FLAG 3136 1744 5V
FLAG 2784 1792 V_IN_RX
FLAG 4192 1056 V_bias
FLAG 1888 1312 0
FLAG 1696 1184 5V
FLAG 1920 1808 0
FLAG 1920 1744 5V
FLAG 1856 1792 Vdiode
FLAG 1936 416 0
FLAG 2144 448 0
FLAG 1664 400 5V
FLAG 1936 352 5V
FLAG 2208 384 V_bias
FLAG 2096 1776 Vdet1
FLAG 2080 1040 Vdiode
FLAG 1776 1712 0
FLAG 4448 1072 Vfilter
FLAG 1872 528 0
FLAG 4192 1808 5V
FLAG 4384 1712 5V
FLAG 4384 1776 0
FLAG 4272 1904 0
FLAG 4192 1744 0
FLAG 4592 1808 0
FLAG 4016 1680 Vfilter
SYMBOL Cap 1808 1088 R0
SYMATTR InstName C12
SYMATTR Value 4p
SYMBOL Res 1680 1056 R0
SYMATTR InstName R11
SYMATTR Value 200Meg
SYMBOL current 1936 1152 R180
WINDOW 123 0 0 Left 0
WINDOW 39 0 0 Left 0
WINDOW 3 -334 166 Left 2
SYMATTR Value PULSE(0 9u 0 10n 10n 11u 33u 0)
SYMATTR InstName I1
SYMBOL Res 3008 1072 R180
WINDOW 0 36 76 Left 2
WINDOW 3 36 40 Left 2
SYMATTR InstName R28
SYMATTR Value 82k
SYMBOL Res 3104 1072 R180
WINDOW 0 36 76 Left 2
WINDOW 3 36 40 Left 2
SYMATTR InstName R32
SYMATTR Value 10k
SYMBOL opamp2 3200 1088 R0
SYMATTR InstName U10
SYMATTR Value TLC081
SYMBOL Cap 2944 1152 R90
WINDOW 0 0 32 VBottom 2
WINDOW 3 32 32 VTop 2
SYMATTR InstName C11
SYMATTR Value 10n
SYMBOL Res 3296 1008 R90
WINDOW 0 0 56 VBottom 2
WINDOW 3 32 56 VTop 2
SYMATTR InstName R33
SYMATTR Value 15k
SYMBOL opamp2 3136 1712 R0
SYMATTR InstName U13
SYMATTR Value TLC081
SYMBOL Res 2992 1776 R90
WINDOW 0 0 56 VBottom 2
WINDOW 3 32 56 VTop 2
SYMATTR InstName R34
SYMATTR Value 100
SYMBOL Res 3184 1904 R90
WINDOW 0 0 56 VBottom 2
WINDOW 3 32 56 VTop 2
SYMATTR InstName R35
SYMATTR Value 100k
SYMBOL opamp2 4304 1008 R0
SYMATTR InstName U14
SYMATTR Value TLC081
SYMBOL Res 4160 1072 R90
WINDOW 0 0 56 VBottom 2
WINDOW 3 32 56 VTop 2
SYMATTR InstName R37
SYMATTR Value 220
SYMBOL Res 4352 1200 R90
WINDOW 0 0 56 VBottom 2
WINDOW 3 32 56 VTop 2
SYMATTR InstName R38
SYMATTR Value 100k
SYMBOL diode 4240 288 R270
WINDOW 0 32 32 VTop 2
WINDOW 3 0 32 VBottom 2
SYMATTR InstName D3
SYMATTR Value 1N4148
SYMBOL Cap 4448 320 R0
SYMATTR InstName C19
SYMATTR Value 5n
SYMBOL Res 4352 288 R0
SYMATTR InstName R40
SYMATTR Value 1500
SYMBOL Res 4448 432 R0
SYMATTR InstName R41
SYMATTR Value 2700
SYMBOL voltage 1664 416 R0
WINDOW 123 0 0 Left 0
WINDOW 39 0 0 Left 0
SYMATTR InstName V2
SYMATTR Value 5
SYMBOL cap 1680 1248 R0
SYMATTR InstName C4
SYMATTR Value 3.5p
SYMBOL res 2064 1056 R0
SYMATTR InstName R6
SYMATTR Value 120k
SYMBOL opamp2 1920 1712 R0
SYMATTR InstName U2
SYMATTR Value TLC081
SYMBOL Res 1984 1664 R90
WINDOW 0 0 56 VBottom 2
WINDOW 3 32 56 VTop 2
SYMATTR InstName R7
SYMATTR Value 10k
SYMBOL opamp2 1936 320 R0
SYMATTR InstName U3
SYMATTR Value TLC081
SYMBOL res 2000 160 R90
WINDOW 0 0 56 VBottom 2
WINDOW 3 32 56 VTop 2
SYMATTR InstName R15
SYMATTR Value 10k
SYMBOL res 1856 432 R0
SYMATTR InstName R16
SYMATTR Value 10k
SYMBOL res 2112 368 R90
WINDOW 0 0 56 VBottom 2
WINDOW 3 32 56 VTop 2
SYMATTR InstName R17
SYMATTR Value 10k
SYMBOL res 1808 384 R90
WINDOW 0 0 56 VBottom 2
WINDOW 3 32 56 VTop 2
SYMATTR InstName R18
SYMATTR Value 10k
SYMBOL res 1872 1696 R90
WINDOW 0 0 56 VBottom 2
WINDOW 3 32 56 VTop 2
SYMATTR InstName R8
SYMATTR Value 10k
SYMBOL cap 1968 1568 R90
WINDOW 0 0 32 VBottom 2
WINDOW 3 32 32 VTop 2
SYMATTR InstName C2
SYMATTR Value 56p
SYMBOL cap 3264 912 R90
WINDOW 0 0 32 VBottom 2
WINDOW 3 32 32 VTop 2
SYMATTR InstName C5
SYMATTR Value 33p
SYMBOL cap 1776 448 R0
SYMATTR InstName C6
SYMATTR Value 1.5n
SYMBOL cap 2128 384 R0
SYMATTR InstName C7
SYMATTR Value 1.5n
SYMBOL opamp2 4384 1680 R0
SYMATTR InstName U1
SYMATTR Value TLC081
SYMBOL res 4320 1792 R90
WINDOW 0 0 56 VBottom 2
WINDOW 3 32 56 VTop 2
SYMATTR InstName R2
SYMATTR Value 10k
SYMBOL res 4352 1920 R180
WINDOW 0 36 76 Left 2
WINDOW 3 36 40 Left 2
SYMATTR InstName R3
SYMATTR Value 2.7k
SYMBOL cap 4176 1840 R0
SYMATTR InstName C3
SYMATTR Value 390n
SYMBOL cap 4416 1616 R90
WINDOW 0 0 32 VBottom 2
WINDOW 3 32 32 VTop 2
SYMATTR InstName C8
SYMATTR Value 10n
SYMBOL res 4336 1664 R90
WINDOW 0 0 56 VBottom 2
WINDOW 3 32 56 VTop 2
SYMATTR InstName R4
SYMATTR Value 10k
SYMBOL cap 4176 1680 R0
SYMATTR InstName C9
SYMATTR Value 10n
SYMBOL res 4336 1536 R90
WINDOW 0 0 56 VBottom 2
WINDOW 3 32 56 VTop 2
SYMATTR InstName R5
SYMATTR Value 220k
SYMBOL res 4160 1664 R90
WINDOW 0 0 56 VBottom 2
WINDOW 3 32 56 VTop 2
SYMATTR InstName R9
SYMATTR Value 100k
SYMBOL res 4576 1728 R90
WINDOW 0 0 56 VBottom 2
WINDOW 3 32 56 VTop 2
SYMATTR InstName R10
SYMATTR Value 10k
SYMBOL cap 4576 1744 R0
SYMATTR InstName C10
SYMATTR Value 80n
TEXT 1448 -312 Left 2 !.lib LM324.lib
TEXT 1456 -248 Left 2 !.tran 0 25ms 0 10u
TEXT 1472 -280 Left 2 !.lib LTC.lib
TEXT 1496 -176 Left 2 !.include TLC081.mod
TEXT 3032 -24 Left 4 ;Input conditioning
TEXT 3592 88 Left 2 ;Amplification
TEXT 3296 768 Left 2 ;Input signal conditioning w/ high pass filter
TEXT 2904 -328 Left 5 ;Receiver (Rx) - Opamp Design
TEXT 4760 80 Left 2 ;Positive edge detector
TEXT 3456 1456 Left 2 ;comparator for square wave
TEXT 4256 -16 Left 4 ;Pulse generator
TEXT 4664 776 Left 2 ;Comparator w/ low pass for avg
TEXT 2664 136 Left 2 ;SFH 203 P characteristics:\n400-1100 nm\nC_0 = 4pF @ 2V, 3.5pF @ 5V\nIp = 9uA @ 1k lx\nIp = 100nA @ low light\nI_R = 1-5 nA @ V_R = 20V\nR_leak = 20/5n = 4x10^9 Ohms
TEXT 3232 656 Left 2 ;Cutoff frequency f_0 =1/(2 pi R_F C_F)
TEXT 4704 1456 Left 2 ;buffer
TEXT 3200 616 Left 2 ;assuming frequency range of 3k to 30k
TEXT 3104 568 Left 2 ;fc is currently 1MHz to keep around 10x our signal freq
TEXT 3464 888 Left 2 ;aiming for a gain of 10
TEXT 3480 936 Left 2 ;fc 200Hz to get rid of dc
TEXT 3832 2152 Left 2 ;Goes from 1v to 3v ish from 30khz to 3khz. pretty much works just needs inversion so that 3khz gives 3v, just dont know where given all the non inverting amps on the pcb
TEXT 2392 96 Left 2 ;2.5 Bias
TEXT 2112 792 Left 2 ;Transimpedance amp + photo diode
TEXT 2264 1480 Left 2 ;Difference amp
RECTANGLE Normal 2540 56 3772 732 2
RECTANGLE Normal 2540 744 3772 1420 2
RECTANGLE Normal 3784 56 5016 732 2
RECTANGLE Normal 3784 744 5016 1420 2
RECTANGLE Normal 2540 1432 3772 2108 2
RECTANGLE Normal 3788 1432 5020 2108 2
RECTANGLE Normal 1292 56 2524 732 2
RECTANGLE Normal 1292 744 2524 1420 2
RECTANGLE Normal 1292 1432 2524 2108 2
